sad/pglib_opf_case3022_goc__sad.m
%%%%%%%%%%%%%%%%%%%%%%%%%%%%%%%%%%%%%%%%%%%%%%%%%%%%%%%%%%%%%%%%%%%%%%%%%%%
%%%%                                                                  %%%%%
%%%%    IEEE PES Power Grid Library - Optimal Power Flow - v20.04     %%%%%
%%%%          (https://github.com/power-grid-lib/pglib-opf)           %%%%%
%%%%             Benchmark Group - Small Angle Difference             %%%%%
%%%%                         12 - July - 2020                         %%%%%
%%%%                                                                  %%%%%
%%%%%%%%%%%%%%%%%%%%%%%%%%%%%%%%%%%%%%%%%%%%%%%%%%%%%%%%%%%%%%%%%%%%%%%%%%%
function mpc = pglib_opf_case3022_goc__sad
mpc.version = '2';
mpc.baseMVA = 100.0;

%% bus data
%	bus_i	type	Pd	Qd	Gs	Bs	area	Vm	Va	baseKV	zone	Vmax	Vmin
mpc.bus = [
	1	 1	 0.0	 0.0	 0.0	 10.7088450599	 1	    1.00000	    0.00000	 230.0	 1	    1.05000	    0.95000;
	2	 1	 0.0	 0.0	 0.0	 0.0	 1	    1.00772	    0.00000	 1.0	 1	    1.06544	    0.95000;
	3	 1	 0.0	 0.0	 0.0	 -18.6298909061	 1	    1.00000	    0.00000	 115.0	 1	    1.05000	    0.95000;
	4	 1	 -87.672	 20.928	 0.0	 8.95926743971	 1	    1.00000	    0.00000	 115.0	 1	    1.05000	    0.95000;
	5	 1	 112.958	 -26.822	 0.0	 10.4858880796	 1	    1.00000	    0.00000	 115.0	 1	    1.05000	    0.95000;
	6	 1	 0.0	 0.0	 0.0	 0.0	 1	    1.00000	    0.00000	 230.0	 1	    1.05000	    0.95000;
	7	 1	 -146.866	 -0.759	 0.0	 -15.929963951	 1	    1.00000	    0.00000	 115.0	 1	    1.05000	    0.95000;
	8	 1	 0.0	 0.0	 0.0	 27.5488096085	 1	    1.00000	    0.00000	 115.0	 1	    1.05000	    0.95000;
	9	 2	 100.773	 -42.513	 0.0	 0.0	 1	    1.00000	    0.00000	 115.0	 1	    1.05000	    0.95000;
	10	 1	 0.0	 0.0	 0.0	 -0.00247428697143	 1	    1.00000	    0.00000	 115.0	 1	    1.05000	    0.95000;
	11	 1	 42.282	 5.533	 0.0	 0.0	 1	    1.00000	    0.00000	 115.0	 1	    1.05000	    0.95000;
	12	 1	 22.891	 2.788	 0.0	 2.65714737811	 1	    1.00000	    0.00000	 230.0	 1	    1.05000	    0.95000;
	13	 1	 0.0	 0.0	 0.0	 -27.9687572032	 1	    1.00000	    0.00000	 230.0	 1	    1.05000	    0.95000;
	14	 1	 259.475	 -10.863	 0.0	 2.47605317836e-05	 1	    1.00772	    0.00000	 345.0	 1	    1.06544	    0.95000;
	15	 1	 -87.69	 20.928	 0.0	 8.99926608727	 1	    1.00000	    0.00000	 115.0	 1	    1.05000	    0.95000;
	16	 1	 123.768	 -1.149	 0.0	 -17.445	 1	    1.00000	    0.00000	 230.0	 1	    1.05000	    0.95000;
	17	 1	 26.673	 7.244	 0.0	 1.56971077193	 1	    1.00000	    0.00000	 230.0	 1	    1.05000	    0.95000;
	18	 1	 38.081	 2.859	 0.0	 21.1150845864	 1	    1.00000	    0.00000	 230.0	 1	    1.05000	    0.95000;
	19	 1	 0.0	 0.0	 0.0	 0.0	 1	    1.01429	    0.00000	 500.0	 1	    1.07859	    0.95000;
	20	 1	 0.0	 0.0	 0.0	 0.0	 1	    1.00772	    0.00000	 1.0	 1	    1.06544	    0.95000;
	21	 1	 -88.375	 27.367	 0.0	 0.0	 1	    1.00000	    0.00000	 22.8	 1	    1.05000	    0.95000;
	22	 1	 0.0	 0.0	 0.0	 47.4985061457	 1	    1.00000	    0.00000	 230.0	 1	    1.05000	    0.95000;
	23	 2	 0.0	 0.0	 0.0	 10.787	 1	    1.00000	    0.00000	 345.0	 1	    1.05000	    0.95000;
	24	 1	 0.0	 0.0	 0.0	 -9.73913034417	 1	    1.00000	    0.00000	 138.0	 1	    1.05000	    0.95000;
	25	 2	 -99.44	 21.918	 0.0	 0.0	 1	    1.00000	    0.00000	 21.0	 1	    1.05000	    0.95000;
	26	 1	 100.532	 -20.512	 0.0	 -1.07635204534	 1	    1.00000	    0.00000	 230.0	 1	    1.05000	    0.95000;
	27	 2	 139.936	 -38.636	 0.0	 0.0	 1	    1.00000	    0.00000	 115.0	 1	    1.05000	    0.95000;
	28	 1	 -200.472	 -6.634	 0.0	 -14.7599583523	 1	    1.00826	    0.00000	 115.0	 1	    1.06652	    0.95000;
	29	 1	 0.0	 0.0	 0.0	 3.32755327965	 1	    1.00000	    0.00000	 115.0	 1	    1.05000	    0.95000;
	30	 1	 81.381	 24.638	 0.0	 44.5470035005	 1	    1.00000	    0.00000	 161.0	 1	    1.05000	    0.95000;
	31	 1	 0.0	 0.0	 0.0	 36.8036356464	 1	    1.00000	    0.00000	 230.0	 1	    1.05000	    0.95000;
	32	 1	 82.398	 -19.261	 0.0	 -0.895305326082	 1	    1.00000	    0.00000	 161.0	 1	    1.05000	    0.95000;
	33	 1	 -45.455	 26.257	 0.0	 6.056789459e-05	 1	    1.00000	    0.00000	 115.0	 1	    1.05000	    0.95000;
	34	 1	 96.915	 77.402	 0.0	 118.618169754	 1	    1.00000	    0.00000	 115.0	 1	    1.05000	    0.95000;
	35	 1	 28.542	 5.107	 0.0	 0.0	 1	    1.00000	    0.00000	 230.0	 1	    1.05000	    0.95000;
	36	 1	 0.0	 0.0	 0.0	 -0.349609780844	 1	    1.00000	    0.00000	 138.0	 1	    1.05000	    0.95000;
	37	 1	 0.0	 0.0	 0.0	 -2.33996268212	 1	    1.00000	    0.00000	 230.0	 1	    1.05000	    0.95000;
	38	 1	 0.0	 0.0	 0.0	 -9.08994151997	 1	    1.00000	    0.00000	 230.0	 1	    1.05000	    0.95000;
	39	 1	 0.0	 0.0	 0.0	 4.25160694973e-05	 1	    1.00972	    0.00000	 230.0	 1	    1.06945	    0.95000;
	40	 1	 0.0	 0.0	 0.0	 0.0	 1	    1.00000	    0.00000	 230.0	 1	    1.05000	    0.95000;
	41	 1	 0.0	 0.0	 0.0	 -5.94944609868	 1	    1.00000	    0.00000	 161.0	 1	    1.05000	    0.95000;
	42	 2	 33.761	 5.625	 0.0	 0.0	 1	    1.00000	    0.00000	 230.0	 1	    1.05000	    0.95000;
	43	 1	 0.0	 0.0	 0.0	 -37.4103850833	 1	    1.00000	    0.00000	 230.0	 1	    1.05000	    0.95000;
	44	 1	 -146.857	 -1.277	 0.0	 -16.4699639484	 1	    1.00000	    0.00000	 115.0	 1	    1.05000	    0.95000;
	45	 1	 0.0	 0.0	 0.0	 0.975274527807	 1	    1.00000	    0.00000	 230.0	 1	    1.05000	    0.95000;
	46	 2	 0.0	 0.0	 0.0	 0.0	 1	    1.00000	    0.00000	 1.0	 1	    1.05000	    0.95000;
	47	 1	 141.537	 -33.307	 0.0	 1.52802945537	 1	    1.00000	    0.00000	 115.0	 1	    1.05000	    0.95000;
	48	 1	 0.0	 0.0	 0.0	 10.2595185715	 1	    1.00000	    0.00000	 230.0	 1	    1.05000	    0.95000;
	49	 1	 31.198	 3.941	 0.0	 0.00109973857814	 1	    1.00000	    0.00000	 115.0	 1	    1.05000	    0.95000;
	50	 1	 22.205	 -5.042	 0.0	 29.0439740368	 1	    1.00000	    0.00000	 230.0	 1	    1.05000	    0.95000;
	51	 2	 0.0	 0.0	 0.0	 0.0	 1	    1.00000	    0.00000	 1.0	 1	    1.05000	    0.95000;
	52	 1	 21.576	 2.526	 0.0	 1.14866320306	 1	    1.00000	    0.00000	 230.0	 1	    1.05000	    0.95000;
	53	 1	 0.0	 0.0	 0.0	 -172.229974873	 1	    1.00772	    0.00000	 500.0	 1	    1.06544	    0.95000;
	54	 1	 190.036	 11.916	 0.0	 0.0	 1	    1.00000	    0.00000	 230.0	 1	    1.05000	    0.95000;
	55	 1	 0.0	 0.0	 0.0	 0.0	 1	    1.00000	    0.00000	 25.0	 2	    1.05000	    0.95000;
	56	 1	 0.0	 0.0	 0.0	 0.0	 1	    1.00000	    0.00000	 115.0	 2	    1.05000	    0.95000;
	57	 1	 0.0	 0.0	 0.0	 0.0	 1	    1.00000	    0.00000	 12.0	 2	    1.05000	    0.95000;
	58	 1	 0.0	 0.0	 0.0	 0.0	 1	    1.00000	    0.00000	 115.0	 2	    1.05000	    0.95000;
	59	 1	 10.549	 -8.986	 0.0	 -6.70459040187	 1	    1.00000	    0.00000	 115.0	 2	    1.05000	    0.95000;
	60	 2	 0.0	 0.0	 0.0	 0.0	 1	    1.00000	    0.00000	 25.0	 2	    1.05000	    0.95000;
	61	 1	 -0.481	 0.546	 0.0	 0.0	 1	    1.00000	    0.00000	 22.0	 2	    1.05000	    0.95000;
	62	 1	 0.0	 0.0	 0.0	 0.0	 1	    1.00000	    0.00000	 115.0	 2	    1.05000	    0.95000;
	63	 1	 9.4	 -0.518	 0.0	 0.0	 1	    1.00000	    0.00000	 115.0	 2	    1.05000	    0.95000;
	64	 1	 0.0	 0.0	 0.0	 0.0	 1	    1.00000	    0.00000	 115.0	 2	    1.05000	    0.95000;
	65	 1	 0.0	 0.0	 0.0	 0.0	 1	    1.00000	    0.00000	 25.0	 2	    1.05000	    0.95000;
	66	 1	 3.756	 -5.847	 0.0	 -15.861	 1	    1.00000	    0.00000	 115.0	 2	    1.05000	    0.95000;
	67	 1	 0.0	 0.0	 0.0	 0.0	 1	    1.00000	    0.00000	 115.0	 2	    1.05000	    0.95000;
	68	 1	 0.0	 0.0	 0.0	 0.0	 1	    1.00000	    0.00000	 12.0	 2	    1.05000	    0.95000;
	69	 1	 0.0	 0.0	 0.0	 0.0	 1	    1.00000	    0.00000	 115.0	 2	    1.05000	    0.95000;
	70	 2	 0.0	 0.0	 0.0	 0.0	 1	    1.00000	    0.00000	 34.5	 2	    1.05000	    0.95000;
	71	 1	 0.0	 0.0	 0.0	 0.0	 1	    1.00000	    0.00000	 1.0	 3	    1.05000	    0.95000;
	72	 1	 0.0	 0.0	 0.0	 0.0	 1	    1.00000	    0.00000	 345.0	 3	    1.05000	    0.95000;
	73	 2	 0.0	 0.0	 0.0	 0.0	 1	    1.00000	    0.00000	 765.0	 3	    1.05000	    0.95000;
	74	 1	 65.606	 30.013	 0.0	 17.9999729176	 1	    1.00000	    0.00000	 138.0	 3	    1.05000	    0.95000;
	75	 3	 27.509	 -14.278	 0.0	 0.0	 1	    1.00000	    0.00000	 345.0	 3	    1.05000	    0.95000;
	76	 1	 0.0	 0.0	 0.0	 0.0	 1	    1.00000	    0.00000	 345.0	 3	    1.05000	    0.95000;
	77	 1	 5.042	 1.397	 0.0	 0.000101257434274	 1	    1.00000	    0.00000	 138.0	 3	    1.05000	    0.95000;
	78	 2	 10.362	 -0.601	 0.0	 0.0	 1	    1.00000	    0.00000	 138.0	 3	    1.05000	    0.95000;
	79	 1	 51.894	 -1.369	 0.0	 0.0	 1	    1.00000	    0.00000	 138.0	 3	    1.05000	    0.95000;
	80	 1	 0.0	 0.0	 0.0	 0.0	 1	    1.00000	    0.00000	 18.0	 3	    1.05000	    0.95000;
	81	 1	 19.781	 4.459	 0.0	 0.0	 1	    1.00000	    0.00000	 138.0	 3	    1.05000	    0.95000;
	82	 1	 0.0	 0.0	 0.0	 0.0	 1	    1.00000	    0.00000	 13.8	 3	    1.05000	    0.95000;
	83	 1	 -6.023	 6.032	 0.0	 0.0	 1	    1.00000	    0.00000	 345.0	 3	    1.05000	    0.95000;
	84	 1	 0.0	 0.0	 0.0	 0.0	 1	    1.00000	    0.00000	 345.0	 3	    1.05000	    0.95000;
	85	 1	 27.618	 2.498	 0.0	 0.0	 1	    1.00000	    0.00000	 138.0	 3	    1.05000	    0.95000;
	86	 1	 43.725	 5.274	 0.0	 0.0	 1	    1.00000	    0.00000	 138.0	 3	    1.05000	    0.95000;
	87	 1	 440.096	 7.094	 0.0	 0.0	 1	    1.00000	    0.00000	 345.0	 3	    1.05000	    0.95000;
	88	 1	 49.09	 12.78	 0.0	 0.0	 1	    1.00000	    0.00000	 345.0	 3	    1.05000	    0.95000;
	89	 1	 175.569	 2.033	 0.0	 0.0	 1	    1.00000	    0.00000	 345.0	 3	    1.05000	    0.95000;
	90	 1	 32.114	 8.836	 0.0	 0.0	 1	    1.00000	    0.00000	 138.0	 3	    1.05000	    0.95000;
	91	 1	 9.326	 2.22	 0.0	 0.0	 1	    1.00000	    0.00000	 138.0	 3	    1.05000	    0.95000;
	92	 1	 36.222	 -4.376	 0.0	 17.9999163045	 1	    1.00000	    0.00000	 138.0	 3	    1.05000	    0.95000;
	93	 1	 126.715	 -21.509	 0.0	 0.0	 1	    1.00000	    0.00000	 345.0	 3	    1.05000	    0.95000;
	94	 1	 19.078	 3.867	 0.0	 6.72995032906	 1	    1.00000	    0.00000	 138.0	 3	    1.05000	    0.95000;
	95	 1	 0.0	 0.0	 0.0	 0.0	 1	    1.00000	    0.00000	 345.0	 3	    1.05000	    0.95000;
	96	 2	 14.914	 3.164	 0.0	 0.0	 1	    1.00000	    0.00000	 138.0	 3	    1.05000	    0.95000;
	97	 1	 141.874	 -28.757	 0.0	 0.0	 1	    1.00000	    0.00000	 138.0	 3	    1.05000	    0.95000;
	98	 1	 26.007	 9.641	 0.0	 0.0	 1	    1.00000	    0.00000	 138.0	 3	    1.05000	    0.95000;
	99	 1	 43.939	 9.981	 0.0	 17.0424703175	 1	    1.00000	    0.00000	 138.0	 3	    1.05000	    0.95000;
	100	 1	 0.0	 0.0	 0.0	 0.0	 1	    1.00000	    0.00000	 1.0	 3	    1.05000	    0.95000;
	101	 1	 0.0	 0.0	 0.0	 0.0	 1	    1.00000	    0.00000	 345.0	 3	    1.05000	    0.95000;
	102	 1	 0.0	 0.0	 0.0	 0.0	 1	    1.00000	    0.00000	 138.0	 3	    1.05000	    0.95000;
	103	 1	 29.292	 -24.573	 0.0	 0.0	 1	    1.00000	    0.00000	 138.0	 3	    1.05000	    0.95000;
	104	 1	 0.0	 0.0	 0.0	 0.0	 1	    1.00000	    0.00000	 345.0	 3	    1.05000	    0.95000;
	105	 1	 0.0	 0.0	 0.0	 0.0	 1	    1.00000	    0.00000	 345.0	 3	    1.05000	    0.95000;
	106	 1	 0.0	 0.0	 0.0	 0.0	 1	    1.00000	    0.00000	 13.8	 3	    1.05000	    0.95000;
	107	 1	 4.173	 2.23	 0.0	 2.99974245453	 1	    1.00000	    0.00000	 138.0	 3	    1.05000	    0.95000;
	108	 1	 0.0	 0.0	 0.0	 0.0	 1	    1.00000	    0.00000	 345.0	 3	    1.05000	    0.95000;
	109	 1	 81.731	 -8.477	 0.0	 0.0	 1	    1.00000	    0.00000	 345.0	 3	    1.05000	    0.95000;
	110	 1	 0.0	 0.0	 0.0	 7.77591109521	 1	    1.00000	    0.00000	 138.0	 3	    1.05000	    0.95000;
	111	 1	 0.0	 0.0	 0.0	 0.0	 1	    1.00000	    0.00000	 138.0	 3	    1.05000	    0.95000;
	112	 2	 21.751	 27.682	 0.0	 0.0	 1	    1.00000	    0.00000	 138.0	 3	    1.05000	    0.95000;
	113	 1	 631.406	 -96.165	 0.0	 0.0	 1	    1.00000	    0.00000	 345.0	 3	    1.05000	    0.95000;
	114	 1	 70.596	 -16.946	 0.0	 -17.2793617853	 1	    1.00000	    0.00000	 138.0	 3	    1.05000	    0.95000;
	115	 1	 30.31	 13.082	 0.0	 0.0	 1	    1.00000	    0.00000	 138.0	 3	    1.05000	    0.95000;
	116	 2	 26.683	 1.48	 0.0	 51.25	 1	    1.00000	    0.00000	 138.0	 3	    1.05000	    0.95000;
	117	 1	 14.516	 -2.998	 0.0	 0.0	 1	    1.00000	    0.00000	 13.8	 3	    1.05000	    0.95000;
	118	 1	 0.0	 0.0	 0.0	 0.0	 1	    1.00000	    0.00000	 345.0	 3	    1.05000	    0.95000;
	119	 1	 -1.591	 5.727	 0.0	 0.0	 1	    1.00000	    0.00000	 24.0	 3	    1.05000	    0.95000;
	120	 1	 0.0	 0.0	 0.0	 0.0	 1	    1.00000	    0.00000	 138.0	 3	    1.05000	    0.95000;
	121	 1	 0.0	 0.0	 0.0	 0.0	 1	    1.00000	    0.00000	 345.0	 3	    1.05000	    0.95000;
	122	 1	 2.785	 -9.493	 0.0	 8.54916974918e-05	 1	    1.00000	    0.00000	 138.0	 3	    1.05000	    0.95000;
	123	 1	 33.057	 1.721	 0.0	 0.0	 1	    1.00000	    0.00000	 138.0	 3	    1.05000	    0.95000;
	124	 1	 0.0	 0.0	 0.0	 0.0	 1	    1.00000	    0.00000	 138.0	 3	    1.05000	    0.95000;
	125	 1	 0.0	 0.0	 0.0	 0.0	 1	    1.00000	    0.00000	 18.0	 3	    1.05000	    0.95000;
	126	 1	 0.0	 0.0	 0.0	 0.0	 1	    1.00000	    0.00000	 18.0	 3	    1.05000	    0.95000;
	127	 1	 0.0	 0.0	 0.0	 0.0	 1	    1.00000	    0.00000	 345.0	 3	    1.05000	    0.95000;
	128	 1	 31.587	 9.021	 0.0	 0.0	 1	    1.00000	    0.00000	 138.0	 3	    1.05000	    0.95000;
	129	 2	 -1.601	 5.607	 0.0	 0.0	 1	    1.00000	    0.00000	 24.0	 3	    1.05000	    0.95000;
	130	 1	 -42.957	 4.376	 0.0	 0.0	 1	    1.00000	    0.00000	 138.0	 3	    1.05000	    0.95000;
	131	 1	 3.599	 1.11	 0.0	 -5.34587821331	 1	    1.00000	    0.00000	 138.0	 3	    1.05000	    0.95000;
	132	 1	 113.263	 14.479	 0.0	 0.0	 1	    1.00000	    0.00000	 138.0	 3	    1.05000	    0.95000;
	133	 1	 41.208	 17.209	 0.0	 6.68996138034	 1	    1.00000	    0.00000	 138.0	 3	    1.05000	    0.95000;
	134	 1	 21.751	 12.962	 0.0	 7.69978252224	 1	    1.00000	    0.00000	 138.0	 3	    1.05000	    0.95000;
	135	 1	 0.0	 0.0	 0.0	 0.0	 1	    1.00000	    0.00000	 345.0	 3	    1.05000	    0.95000;
	136	 1	 2.889	 -10.705	 0.0	 -6.75633000352	 1	    1.00000	    0.00000	 138.0	 3	    1.05000	    0.95000;
	137	 1	 0.0	 0.0	 0.0	 0.0	 1	    1.00000	    0.00000	 345.0	 3	    1.05000	    0.95000;
	138	 1	 29.125	 3.386	 0.0	 0.0	 1	    1.00000	    0.00000	 138.0	 3	    1.05000	    0.95000;
	139	 1	 -4.691	 0.111	 0.0	 6.74995867	 1	    1.00000	    0.00000	 138.0	 3	    1.05000	    0.95000;
	140	 1	 14.526	 -2.998	 0.0	 0.0	 1	    1.00000	    0.00000	 13.8	 3	    1.05000	    0.95000;
	141	 2	 0.0	 0.0	 0.0	 0.0	 1	    1.00000	    0.00000	 345.0	 3	    1.05000	    0.95000;
	142	 1	 0.0	 0.0	 0.0	 -249.996582478	 1	    1.00000	    0.00000	 345.0	 3	    1.05000	    0.95000;
	143	 1	 0.0	 0.0	 0.0	 0.0	 1	    1.00000	    0.00000	 345.0	 3	    1.05000	    0.95000;
	144	 1	 11.658	 0.731	 0.0	 2.33991149862	 1	    1.00000	    0.00000	 138.0	 3	    1.05000	    0.95000;
	145	 1	 32.317	 9.687	 0.0	 0.0	 1	    1.00000	    0.00000	 138.0	 3	    1.05000	    0.95000;
	146	 1	 5.533	 9.317	 0.0	 0.0	 1	    1.00000	    0.00000	 138.0	 3	    1.05000	    0.95000;
	147	 2	 17.051	 3.969	 0.0	 0.0	 1	    1.00000	    0.00000	 138.0	 3	    1.05000	    0.95000;
	148	 1	 28.024	 14.156	 0.0	 0.0	 1	    1.00000	    0.00000	 138.0	 3	    1.05000	    0.95000;
	149	 1	 35.185	 19.42	 0.0	 13.5364791991	 1	    1.00000	    0.00000	 138.0	 3	    1.05000	    0.95000;
	150	 1	 0.962	 2.933	 0.0	 0.0	 1	    1.00000	    0.00000	 138.0	 3	    1.05000	    0.95000;
	151	 1	 0.0	 0.0	 0.0	 0.0	 1	    1.00000	    0.00000	 230.0	 4	    1.05000	    0.95000;
	152	 2	 0.0	 0.0	 0.0	 0.0	 1	    1.00000	    0.00000	 25.0	 4	    1.05000	    0.95000;
	153	 1	 28.293	 4.941	 0.0	 0.0	 1	    1.00000	    0.00000	 115.0	 4	    1.05000	    0.95000;
	154	 2	 36.027	 -0.712	 0.0	 0.0	 1	    1.00000	    0.00000	 46.0	 4	    1.05000	    0.95000;
	155	 1	 0.0	 0.0	 0.0	 0.0	 1	    1.00000	    0.00000	 115.0	 4	    1.05000	    0.95000;
	156	 1	 8.993	 1.305	 0.0	 0.0	 1	    1.00000	    0.00000	 115.0	 4	    1.05000	    0.95000;
	157	 1	 0.0	 0.0	 0.0	 0.0	 1	    1.00000	    0.00000	 46.0	 4	    1.05000	    0.95000;
	158	 1	 0.0	 0.0	 0.0	 0.0	 1	    1.00000	    0.00000	 115.0	 4	    1.05000	    0.95000;
	159	 1	 7.115	 1.601	 0.0	 0.0	 1	    1.00000	    0.00000	 46.0	 4	    1.05000	    0.95000;
	160	 1	 131.274	 -62.291	 0.0	 -59.884	 1	    1.00000	    0.00000	 230.0	 4	    1.05000	    0.95000;
	161	 1	 16.515	 6.06	 0.0	 0.0	 1	    1.00000	    0.00000	 46.0	 4	    1.05000	    0.95000;
	162	 1	 20.678	 4.756	 0.0	 0.0	 1	    1.00000	    0.00000	 115.0	 4	    1.05000	    0.95000;
	163	 1	 5.884	 1.064	 0.0	 0.0	 1	    1.00000	    0.00000	 13.8	 4	    1.05000	    0.95000;
	164	 1	 7.901	 -1.194	 0.0	 0.0	 1	    1.00000	    0.00000	 115.0	 4	    1.05000	    0.95000;
	165	 1	 31.05	 2.535	 0.0	 0.0	 1	    1.00000	    0.00000	 115.0	 4	    1.05000	    0.95000;
	166	 1	 13.351	 0.185	 0.0	 0.0	 1	    1.00000	    0.00000	 115.0	 4	    1.05000	    0.95000;
	167	 1	 0.0	 0.0	 0.0	 0.0	 1	    1.00000	    0.00000	 230.0	 4	    1.05000	    0.95000;
	168	 1	 6.541	 -1.554	 0.0	 0.0	 1	    1.00000	    0.00000	 115.0	 4	    1.05000	    0.95000;
	169	 1	 0.0	 0.0	 0.0	 0.0	 1	    1.00000	    0.00000	 115.0	 4	    1.05000	    0.95000;
	170	 1	 8.91	 0.879	 0.0	 0.0	 1	    1.00000	    0.00000	 115.0	 4	    1.05000	    0.95000;
	171	 1	 0.0	 0.0	 0.0	 0.0	 1	    1.00000	    0.00000	 230.0	 4	    1.05000	    0.95000;
	172	 1	 0.0	 0.0	 0.0	 0.0	 1	    1.00000	    0.00000	 115.0	 4	    1.05000	    0.95000;
	173	 1	 21.65	 0.749	 0.0	 0.0	 1	    1.00000	    0.00000	 46.0	 4	    1.05000	    0.95000;
	174	 1	 -0.379	 -1.277	 0.0	 0.0	 1	    1.00000	    0.00000	 115.0	 4	    1.05000	    0.95000;
	175	 1	 0.0	 0.0	 0.0	 0.0	 1	    1.00000	    0.00000	 115.0	 4	    1.05000	    0.95000;
	176	 1	 23.481	 -5.293	 0.0	 0.0	 1	    1.00000	    0.00000	 115.0	 4	    1.05000	    0.95000;
	177	 1	 143.394	 -29.945	 0.0	 0.0	 1	    1.00000	    0.00000	 230.0	 4	    1.05000	    0.95000;
	178	 1	 0.0	 0.0	 0.0	 0.0	 1	    1.00000	    0.00000	 34.5	 4	    1.05000	    0.95000;
	179	 1	 0.0	 0.0	 0.0	 0.0	 1	    1.00000	    0.00000	 13.8	 4	    1.05000	    0.95000;
	180	 1	 48.003	 -21.647	 0.0	 0.0	 1	    1.00000	    0.00000	 115.0	 4	    1.05000	    0.95000;
	181	 1	 8.068	 -0.648	 0.0	 0.0	 1	    1.00000	    0.00000	 46.0	 4	    1.05000	    0.95000;
	182	 1	 0.0	 0.0	 0.0	 0.0	 1	    1.00000	    0.00000	 34.5	 4	    1.05000	    0.95000;
	183	 1	 5.607	 -1.434	 0.0	 0.0	 1	    1.00000	    0.00000	 115.0	 4	    1.05000	    0.95000;
	184	 1	 10.908	 2.156	 0.0	 0.0	 1	    1.00000	    0.00000	 46.0	 4	    1.05000	    0.95000;
	185	 1	 0.0	 0.0	 0.0	 0.0	 1	    1.00000	    0.00000	 115.0	 4	    1.05000	    0.95000;
	186	 1	 0.0	 0.0	 0.0	 0.0	 1	    1.00000	    0.00000	 230.0	 4	    1.05000	    0.95000;
	187	 1	 6.005	 -1.425	 0.0	 0.0	 1	    1.00000	    0.00000	 115.0	 4	    1.05000	    0.95000;
	188	 1	 5.273	 -4.154	 0.0	 0.0	 1	    1.00000	    0.00000	 115.0	 4	    1.05000	    0.95000;
	189	 1	 0.0	 0.0	 0.0	 0.0	 1	    1.00000	    0.00000	 230.0	 4	    1.05000	    0.95000;
	190	 1	 7.725	 0.435	 0.0	 0.0	 1	    1.00000	    0.00000	 46.0	 4	    1.05000	    0.95000;
	191	 1	 -0.481	 0.546	 0.0	 0.0	 1	    1.00000	    0.00000	 22.0	 4	    1.05000	    0.95000;
	192	 1	 0.0	 0.0	 0.0	 9.19999579897	 1	    1.00000	    0.00000	 34.5	 4	    1.05000	    0.95000;
	193	 1	 87.811	 -13.624	 0.0	 0.0	 1	    1.00000	    0.00000	 115.0	 4	    1.05000	    0.95000;
	194	 1	 0.0	 0.0	 0.0	 0.0	 1	    1.00000	    0.00000	 46.0	 4	    1.05000	    0.95000;
	195	 1	 7.975	 -2.341	 0.0	 0.0	 1	    1.00000	    0.00000	 46.0	 4	    1.05000	    0.95000;
	196	 1	 0.0	 0.0	 0.0	 0.0	 1	    1.00000	    0.00000	 34.5	 4	    1.05000	    0.95000;
	197	 1	 0.0	 0.0	 0.0	 0.0	 1	    1.00000	    0.00000	 46.0	 4	    1.05000	    0.95000;
	198	 1	 0.0	 0.0	 0.0	 0.0	 1	    1.00000	    0.00000	 115.0	 4	    1.05000	    0.95000;
	199	 1	 0.0	 0.0	 0.0	 0.0	 1	    1.00000	    0.00000	 34.5	 4	    1.05000	    0.95000;
	200	 1	 10.936	 -0.583	 0.0	 0.0	 1	    1.00000	    0.00000	 46.0	 4	    1.05000	    0.95000;
...
];

%% generator data
%	bus	Pg	Qg	Qmax	Qmin	Vg	mBase	status	Pmax	Pmin
mpc.gen = [
	9	 21.5	 0.0	 500.0	 -500.0	 1.0	 100.0	 1	 40.0	 3.0;
	21	 0.0	 0.0	 532.035	 -532.035	 1.0	 100.0	 0	 1764.706	 88.235;
	23	 187.6395	 0.0	 33.333	 -33.333	 1.0	 100.0	 1	 357.409	 17.87;
	25	 1089.9655	 0.0	 400.0	 -400.0	 1.0	 100.0	 1	 2076.125	 103.806;
	27	 764.2285	 0.0	 550.0	 -550.0	 1.0	 100.0	 1	 1500.0	 28.457;
	42	 755.9805	 0.0	 550.0	 -550.0	 1.0	 100.0	 1	 1500.0	 11.961;
	46	 775.9245	 0.0	 550.0	 -550.0	 1.0	 100.0	 1	 1500.0	 51.849;
	51	 754.122	 0.0	 550.0	 -550.0	 1.0	 100.0	 1	 1500.0	 8.244;
	55	 0.0	 0.0	 131.303	 -131.303	 1.0	 35.0	 0	 422.059	 5.7;
	60	 22.303	 0.0	 9.352	 -9.352	 1.0	 100.0	 1	 41.606	 3.0;
	70	 23.34	 0.0	 9.296	 -9.296	 1.0	 100.0	 1	 41.36	 5.32;
	73	 770.3845	 0.0	 550.0	 -550.0	 1.0	 100.0	 1	 1500.0	 40.769;
	75	 1005.0	 0.0	 425.895	 -425.895	 1.0	 1020.0	 1	 2000.0	 10.0;
	75	 1005.0	 0.0	 426.656	 -426.656	 1.0	 1020.0	 1	 2000.0	 10.0;
	78	 751.5	 0.0	 550.0	 -550.0	 1.0	 100.0	 1	 1500.0	 3.0;
	96	 753.085	 0.0	 550.0	 -550.0	 1.0	 100.0	 1	 1500.0	 6.17;
	112	 21.5	 0.0	 3.66	 -3.66	 1.0	 100.0	 1	 40.0	 3.0;
	116	 115.586	 0.0	 51.286	 -51.286	 1.0	 100.0	 1	 228.172	 3.0;
	119	 0.0	 0.0	 284.382	 -284.382	 1.0	 686.0	 0	 914.118	 45.706;
	129	 626.6275	 0.0	 281.019	 -281.019	 1.0	 686.0	 1	 1250.255	 3.0;
	141	 787.5	 0.0	 550.0	 -550.0	 1.0	 100.0	 1	 1500.0	 75.0;
	147	 21.5	 0.0	 9.607	 -9.607	 1.0	 100.0	 1	 40.0	 3.0;
	151	 0.0	 0.0	 120.323	 -120.323	 1.0	 100.0	 0	 386.765	 19.338;
	152	 221.2325	 0.0	 135.878	 -135.878	 1.0	 35.0	 1	 436.765	 5.7;
	154	 257.5555	 0.0	 135.42	 -135.42	 1.0	 100.0	 1	 512.111	 3.0;
	160	 0.0	 0.0	 16.813	 -16.813	 1.0	 40.6	 0	 54.044	 3.0;
	163	 0.0	 0.0	 32.357	 -32.357	 1.0	 60.67	 0	 104.007	 9.5;
	178	 0.0	 0.0	 8.321	 -8.321	 1.0	 52.5	 0	 26.746	 3.0;
	179	 0.0	 0.0	 56.044	 -56.044	 1.0	 102.0	 0	 180.147	 38.0;
	182	 0.0	 0.0	 10.426	 -10.426	 1.0	 38.65	 0	 33.515	 7.79;
	192	 0.0	 0.0	 134.962	 -134.962	 1.0	 100.0	 0	 433.824	 21.691;
	196	 0.0	 0.0	 11.929	 -11.929	 1.0	 38.65	 0	 38.346	 3.0;
	199	 0.0	 0.0	 14.745	 -14.745	 1.0	 126.32	 0	 47.397	 19.66;
	199	 0.0	 0.0	 24.019	 -24.019	 1.0	 100.0	 0	 77.206	 3.86;
	199	 0.0	 0.0	 9.607	 -9.607	 1.0	 100.0	 0	 30.882	 3.0;
	211	 21.5	 0.0	 11.209	 -11.209	 1.0	 100.0	 1	 40.0	 3.0;
	217	 0.0	 0.0	 297.832	 -297.832	 1.0	 733.0	 0	 957.353	 304.0;
	224	 0.0	 0.0	 431.367	 -431.367	 1.0	 650.0	 0	 1386.585	 427.4;
	237	 0.0	 0.0	 10.34	 -10.34	 1.0	 100.0	 0	 33.235	 7.6;
	243	 754.4865	 0.0	 550.0	 -550.0	 1.0	 100.0	 1	 1500.0	 8.973;
	252	 0.0	 0.0	 69.06	 -69.06	 1.0	 250.0	 0	 221.985	 11.099;
	257	 0.0	 0.0	 24.979	 -24.979	 1.0	 25.98	 0	 80.294	 20.65;
	263	 42.917	 0.0	 21.617	 -21.617	 1.0	 43.45	 1	 81.747	 4.087;
	267	 751.5	 0.0	 550.0	 -550.0	 1.0	 100.0	 1	 1500.0	 3.0;
	269	 769.343	 0.0	 550.0	 -550.0	 1.0	 100.0	 1	 1500.0	 38.686;
	274	 37.799	 0.0	 18.735	 -18.735	 1.0	 44.0	 1	 70.848	 4.75;
	286	 787.5	 0.0	 550.0	 -550.0	 1.0	 100.0	 1	 1500.0	 75.0;
	293	 61.911	 0.0	 26.764	 -26.764	 1.0	 73.0	 1	 119.072	 4.75;
	302	 0.0	 0.0	 120.323	 -120.323	 1.0	 6.25	 0	 386.765	 5.142;
	305	 289.589	 0.0	 123.982	 -123.982	 1.0	 100.0	 1	 551.598	 27.58;
	314	 0.0	 0.0	 307.92	 -307.92	 1.0	 370.6	 0	 989.779	 251.2;
	322	 768.5275	 0.0	 550.0	 -550.0	 1.0	 100.0	 1	 1500.0	 37.055;
	332	 93.0805	 0.0	 48.037	 -48.037	 1.0	 100.0	 1	 181.661	 4.5;
	333	 0.0	 0.0	 7.206	 -7.206	 1.0	 100.0	 0	 23.162	 3.0;
	336	 0.0	 0.0	 86.467	 -86.467	 1.0	 234.0	 0	 326.99	 94.05;
	339	 262.526	 0.0	 117.578	 -117.578	 1.0	 100.0	 1	 523.102	 1.95;
	350	 0.0	 0.0	 66.292	 -66.292	 1.0	 43.45	 0	 213.088	 25.933;
	351	 787.5	 0.0	 550.0	 -550.0	 1.0	 100.0	 1	 1500.0	 75.0;
	352	 0.0	 0.0	 215.089	 -215.089	 1.0	 100.0	 0	 691.382	 34.569;
	353	 0.0	 0.0	 101.107	 -101.107	 1.0	 213.4	 0	 325.0	 94.05;
	356	 207.3825	 0.0	 128.1	 -128.1	 1.0	 100.0	 1	 411.765	 3.0;
	358	 275.3225	 0.0	 123.525	 -123.525	 1.0	 100.0	 1	 549.562	 1.083;
	359	 0.0	 0.0	 243.07	 -243.07	 1.0	 595.0	 0	 781.324	 124.8;
	368	 60.6965	 0.0	 25.986	 -25.986	 1.0	 71.18	 1	 115.612	 5.781;
	371	 238.259	 0.0	 122.152	 -122.152	 1.0	 64.7	 1	 461.938	 14.58;
	371	 0.0	 0.0	 118.95	 -118.95	 1.0	 64.7	 0	 382.353	 19.118;
	371	 0.0	 0.0	 19.627	 -19.627	 1.0	 49.4	 0	 63.088	 13.46;
	372	 145.919	 0.0	 86.467	 -86.467	 1.0	 213.4	 1	 277.941	 13.897;
	375	 0.0	 0.0	 21.617	 -21.617	 1.0	 43.45	 0	 69.485	 4.75;
	379	 626.0025	 0.0	 253.158	 -253.158	 1.0	 382.6	 1	 1126.297	 125.708;
	382	 0.0	 0.0	 86.467	 -86.467	 1.0	 234.0	 0	 277.941	 94.05;
	388	 764.3025	 0.0	 550.0	 -550.0	 1.0	 100.0	 1	 1500.0	 28.605;
	392	 260.528	 0.0	 116.663	 -116.663	 1.0	 100.0	 1	 519.031	 2.025;
	398	 278.3165	 0.0	 124.44	 -124.44	 1.0	 19.0	 1	 553.633	 3.0;
	401	 0.0	 0.0	 312.244	 -312.244	 1.0	 369.0	 0	 1003.676	 127.708;
	412	 762.9485	 0.0	 550.0	 -550.0	 1.0	 100.0	 1	 1500.0	 25.897;
	414	 759.277	 0.0	 550.0	 -550.0	 1.0	 100.0	 1	 1500.0	 18.554;
	421	 21.5	 0.0	 605.021	 -605.021	 1.0	 100.0	 1	 40.0	 3.0;
	431	 751.5	 0.0	 550.0	 -550.0	 1.0	 100.0	 1	 1500.0	 3.0;
	433	 751.5	 0.0	 550.0	 -550.0	 1.0	 100.0	 1	 1500.0	 3.0;
	442	 754.6815	 0.0	 550.0	 -550.0	 1.0	 100.0	 1	 1500.0	 9.363;
	456	 787.5	 0.0	 550.0	 -550.0	 1.0	 100.0	 1	 1500.0	 75.0;
	468	 77.4955	 0.0	 28.431	 -28.431	 1.0	 58.71	 1	 126.491	 28.5;
	474	 0.0	 0.0	 133.133	 -133.133	 1.0	 52.94	 0	 427.941	 21.397;
	474	 0.0	 0.0	 19.215	 -19.215	 1.0	 52.94	 0	 61.765	 14.25;
	506	 0.0	 0.0	 119.408	 -119.408	 1.0	 250.0	 0	 383.824	 19.191;
	510	 751.5	 0.0	 550.0	 -550.0	 1.0	 100.0	 1	 1500.0	 3.0;
	543	 787.5	 0.0	 550.0	 -550.0	 1.0	 100.0	 1	 1500.0	 75.0;
	563	 0.0	 0.0	 384.3	 -384.3	 1.005845	 100.0	 0	 1235.294	 61.765;
	566	 699.078	 0.0	 368.928	 -368.928	 1.0	 841.0	 1	 1395.156	 3.0;
	569	 752.2955	 0.0	 550.0	 -550.0	 1.0	 100.0	 1	 1500.0	 4.591;
	579	 271.5295	 0.0	 116.251	 -116.251	 1.0	 100.0	 1	 517.199	 25.86;
	582	 714.239	 0.0	 320.404	 -320.404	 1.0	 659.0	 1	 1425.478	 3.0;
	584	 21.5	 0.0	 24.181	 -24.181	 1.0	 100.0	 1	 40.0	 3.0;
	588	 0.0	 0.0	 22.578	 -22.578	 1.007635	 100.0	 0	 72.574	 3.629;
	609	 751.5	 0.0	 550.0	 -550.0	 1.0	 100.0	 1	 1500.0	 3.0;
	614	 603.118	 0.0	 270.451	 -270.451	 1.0	 100.0	 1	 1203.236	 3.0;
	626	 0.0	 0.0	 319.141	 -319.141	 1.0	 659.0	 0	 1025.846	 51.292;
	629	 0.0	 0.0	 174.857	 -174.857	 1.00898	 100.0	 0	 562.059	 28.103;
	630	 0.0	 0.0	 29.303	 -29.303	 1.0	 55.0	 0	 94.191	 4.71;
	630	 0.0	 0.0	 26.421	 -26.421	 1.0	 55.0	 0	 84.926	 4.246;
	630	 60.46	 0.0	 26.421	 -26.421	 1.0	 55.0	 1	 117.545	 3.375;
	630	 69.89	 0.0	 30.744	 -30.744	 1.0	 55.0	 1	 136.78	 3.0;
	630	 0.0	 0.0	 25.94	 -25.94	 1.0	 55.0	 0	 83.382	 4.169;
	630	 0.0	 0.0	 25.94	 -25.94	 1.0	 55.0	 0	 83.382	 4.169;
	634	 0.0	 0.0	 7.206	 -7.206	 1.0	 19.0	 0	 23.162	 3.0;
	638	 686.678	 0.0	 293.99	 -293.99	 1.0	 718.0	 1	 1307.958	 65.398;
	652	 0.0	 0.0	 22.578	 -22.578	 1.0	 55.6	 0	 72.574	 3.629;
	652	 0.0	 0.0	 22.578	 -22.578	 1.0	 55.6	 0	 72.574	 3.629;
	652	 39.331	 0.0	 23.538	 -23.538	 1.0	 55.6	 1	 75.662	 3.0;
	652	 309.8925	 0.0	 132.675	 -132.675	 1.0	 55.6	 1	 590.271	 29.514;
	652	 0.0	 0.0	 134.048	 -134.048	 1.0	 195.6	 0	 430.882	 21.544;
	652	 17.3895	 0.0	 9.887	 -9.887	 1.0	 195.6	 1	 31.779	 3.0;
	664	 755.802	 0.0	 550.0	 -550.0	 1.0	 100.0	 1	 1500.0	 11.604;
	669	 462.419	 0.0	 286.784	 -286.784	 1.0	 704.0	 1	 921.838	 3.0;
	682	 21.5	 0.0	 3.66	 -3.66	 1.0181	 100.0	 1	 40.0	 3.0;
	686	 0.0	 0.0	 364.605	 -364.605	 1.0	 841.0	 0	 1171.985	 58.599;
	696	 761.144	 0.0	 550.0	 -550.0	 1.0	 100.0	 1	 1500.0	 22.288;
	698	 21.5	 0.0	 3.66	 -3.66	 1.0	 100.0	 1	 40.0	 3.0;
	702	 714.1105	 0.0	 443.386	 -443.386	 1.0	 1043.0	 1	 1425.221	 3.0;
	715	 0.0	 0.0	 129.015	 -129.015	 1.0	 100.0	 0	 414.706	 20.735;
	719	 0.0	 0.0	 30.744	 -30.744	 1.0	 47.62	 0	 98.824	 3.0;
	722	 0.0	 0.0	 31.224	 -31.224	 1.0	 100.0	 0	 100.368	 5.018;
	728	 0.0	 0.0	 122.015	 -122.015	 1.0	 194.91	 0	 392.206	 19.61;
	730	 220.3095	 0.0	 110.967	 -110.967	 1.0	 194.45	 1	 419.637	 20.982;
	732	 248.905	 0.0	 111.218	 -111.218	 1.0	 196.98	 1	 494.81	 3.0;
	735	 0.0	 0.0	 30.264	 -30.264	 1.0	 100.0	 0	 97.279	 4.864;
	739	 0.0	 0.0	 12.009	 -12.009	 1.0	 100.0	 0	 38.603	 3.0;
	742	 0.0	 0.0	 48.037	 -48.037	 1.0	 120.0	 0	 154.412	 2.85;
	748	 0.0	 0.0	 122.015	 -122.015	 1.0	 195.49	 0	 392.206	 19.61;
	765	 0.0	 0.0	 41.793	 -41.793	 1.008385	 100.0	 0	 134.338	 6.717;
	770	 0.0	 0.0	 17.808	 -17.808	 1.0	 100.0	 0	 57.243	 3.0;
	770	 0.0	 0.0	 15.172	 -15.172	 1.0	 100.0	 0	 48.768	 3.0;
	774	 755.376	 0.0	 550.0	 -550.0	 1.0	 100.0	 1	 1500.0	 10.752;
	775	 180.5165	 0.0	 111.384	 -111.384	 1.0	 194.87	 1	 358.033	 3.0;
	783	 211.4805	 0.0	 111.052	 -111.052	 0.994275	 194.6	 1	 419.961	 3.0;
	788	 751.5	 0.0	 550.0	 -550.0	 1.0	 100.0	 1	 1500.0	 3.0;
	789	 751.5	 0.0	 550.0	 -550.0	 1.0	 100.0	 1	 1500.0	 3.0;
	791	 248.536	 0.0	 111.052	 -111.052	 1.0	 194.3	 1	 494.072	 3.0;
	792	 913.8605	 0.0	 550.0	 -550.0	 1.0	 100.0	 1	 1740.687	 87.034;
	800	 52.693	 0.0	 31.224	 -31.224	 1.0	 100.0	 1	 100.368	 5.018;
	801	 94.147	 0.0	 57.645	 -57.645	 1.0	 100.0	 1	 185.294	 3.0;
	809	 772.1335	 0.0	 550.0	 -550.0	 1.0	 100.0	 1	 1500.0	 44.267;
	816	 0.0	 0.0	 127.643	 -127.643	 1.0	 128.0	 0	 410.294	 20.515;
	816	 110.8965	 0.0	 48.998	 -48.998	 1.0	 128.0	 1	 217.993	 3.8;
	816	 0.0	 0.0	 123.982	 -123.982	 1.0	 128.0	 0	 398.529	 19.926;
	816	 110.8965	 0.0	 48.998	 -48.998	 1.0	 128.0	 1	 217.993	 3.8;
	819	 0.0	 0.0	 638.226	 -638.226	 1.0079	 100.0	 0	 2219.323	 110.966;
	820	 182.272	 0.0	 112.476	 -112.476	 1.0	 196.78	 1	 361.544	 3.0;
	821	 0.0	 0.0	 111.132	 -111.132	 1.0	 196.83	 0	 357.224	 17.861;
	825	 272.923	 0.0	 122.015	 -122.015	 0.994275	 195.2	 1	 542.846	 3.0;
	829	 194.491	 0.0	 118.492	 -118.492	 1.0	 100.0	 1	 380.882	 8.1;
	836	 0.0	 0.0	 116.663	 -116.663	 1.0	 100.0	 0	 375.0	 18.75;
	839	 26.114	 0.0	 15.315	 -15.315	 1.0	 100.0	 1	 49.228	 3.0;
	839	 0.0	 0.0	 15.338	 -15.338	 1.0	 100.0	 0	 49.301	 3.0;
	840	 210.529	 0.0	 110.549	 -110.549	 1.0	 193.42	 1	 418.058	 3.0;
	842	 109.428	 0.0	 48.518	 -48.518	 1.0	 100.0	 1	 215.856	 3.0;
	850	 772.1335	 0.0	 550.0	 -550.0	 1.0	 100.0	 1	 1500.0	 44.267;
	859	 0.0	 0.0	 31.224	 -31.224	 1.0	 100.0	 0	 100.368	 5.018;
	862	 250.0245	 0.0	 111.721	 -111.721	 0.994275	 195.77	 1	 497.049	 3.0;
	863	 0.0	 0.0	 15.652	 -15.652	 1.0	 100.0	 0	 50.312	 3.0;
	864	 0.0	 0.0	 15.269	 -15.269	 1.0	 100.0	 0	 49.081	 3.0;
	869	 242.0965	 0.0	 107.124	 -107.124	 1.0	 100.0	 1	 476.593	 7.6;
	873	 0.0	 0.0	 591.096	 -591.096	 1.0	 716.2	 0	 1900.019	 524.545;
	880	 216.416	 0.0	 133.59	 -133.59	 1.0	 100.0	 1	 429.412	 3.42;
	906	 0.0	 0.0	 305.038	 -305.038	 1.0	 716.2	 0	 980.515	 209.0;
	926	 787.5	 0.0	 550.0	 -550.0	 1.0	 100.0	 1	 1500.0	 75.0;
	938	 0.0	 0.0	 14.411	 -14.411	 1.0	 37.5	 0	 46.324	 17.033;
	938	 0.0	 0.0	 14.411	 -14.411	 1.0	 37.5	 0	 46.324	 16.7;
	938	 0.0	 0.0	 14.411	 -14.411	 1.0	 36.0	 0	 46.324	 8.633;
	961	 766.1375	 0.0	 550.0	 -550.0	 1.0	 100.0	 1	 1500.0	 32.275;
	965	 787.5	 0.0	 550.0	 -550.0	 1.0	 100.0	 1	 1500.0	 75.0;
	987	 56.2205	 0.0	 23.779	 -23.779	 1.0	 60.0	 1	 105.791	 6.65;
	992	 0.0	 0.0	 31.032	 -31.032	 1.0	 64.1	 0	 99.75	 4.988;
	992	 0.0	 0.0	 128.1	 -128.1	 1.0	 1.5	 0	 411.765	 20.588;
	992	 0.0	 0.0	 116.663	 -116.663	 1.0	 100.0	 0	 375.0	 18.75;
	992	 289.979	 0.0	 129.93	 -129.93	 1.0	 13.0	 1	 578.058	 1.9;
	996	 755.136	 0.0	 550.0	 -550.0	 1.0	 100.0	 1	 1500.0	 10.272;
	1007	 0.0	 0.0	 0.091	 -0.091	 1.0	 100.0	 0	 0.294	 0.1;
	1048	 0.0	 0.0	 114.375	 -114.375	 1.0	 100.0	 0	 367.647	 1.267;
	1056	 210.161	 0.0	 81.664	 -81.664	 1.0	 246.0	 1	 363.322	 57.0;
	1061	 766.934	 0.0	 550.0	 -550.0	 1.0	 100.0	 1	 1500.0	 33.868;
	1065	 0.0	 0.0	 0.091	 -0.091	 1.0	 100.0	 0	 0.294	 0.1;
	1077	 754.592	 0.0	 550.0	 -550.0	 1.0	 100.0	 1	 1500.0	 9.184;
	1086	 0.0	 0.0	 0.091	 -0.091	 1.0	 100.0	 0	 0.294	 0.1;
	1092	 0.0	 0.0	 126.27	 -126.27	 1.0	 225.0	 0	 405.882	 3.6;
	1092	 0.0	 0.0	 59.534	 -59.534	 1.0	 154.0	 0	 191.368	 50.18;
	1139	 765.662	 0.0	 550.0	 -550.0	 1.0	 100.0	 1	 1500.0	 31.324;
	1140	 757.9685	 0.0	 550.0	 -550.0	 1.0	 100.0	 1	 1500.0	 15.937;
	1142	 0.0	 0.0	 122.068	 -122.068	 1.0	 100.0	 0	 392.376	 19.619;
	1143	 273.041	 0.0	 122.068	 -122.068	 1.0	 100.0	 1	 543.082	 3.0;
	1144	 197.688	 0.0	 122.068	 -122.068	 1.0	 100.0	 1	 392.376	 3.0;
	1145	 273.0325	 0.0	 122.065	 -122.065	 1.0	 100.0	 1	 543.065	 3.0;
	1146	 777.7565	 0.0	 550.0	 -550.0	 1.0	 100.0	 1	 1500.0	 55.513;
	1173	 17.987	 0.0	 7.411	 -7.411	 1.0	 100.0	 1	 32.974	 3.0;
	1175	 0.0	 0.0	 11.58	 -11.58	 1.00769	 100.0	 0	 37.224	 3.0;
	1181	 32.0575	 0.0	 13.725	 -13.725	 1.0	 100.0	 1	 61.062	 3.053;
	1183	 0.0	 0.0	 13.725	 -13.725	 1.0	 100.0	 0	 44.118	 3.0;
	1185	 0.0	 0.0	 21.445	 -21.445	 1.0	 100.0	 0	 68.934	 3.447;
	1187	 0.0	 0.0	 21.445	 -21.445	 1.0	 100.0	 0	 68.934	 3.447;
...
];

%% generator cost data
%	2	startup	shutdown	n	c(n-1)	...	c0
mpc.gencost = [
	2	 0.0	 0.0	 3	   0.262100	  26.580000	 238.400000;
	2	 0.0	 0.0	 3	   0.000000	   0.796100	 9097.000000;
	2	 0.0	 0.0	 3	   0.000000	   1.094000	 1106.000000;
	2	 0.0	 0.0	 3	   0.000000	   0.623000	 7857.000000;
	2	 0.0	 0.0	 3	   0.000000	   0.559300	 2277.000000;
	2	 0.0	 0.0	 3	   0.000000	   0.553100	 980.000000;
	2	 0.0	 0.0	 3	   0.000000	   0.568300	 4178.000000;
	2	 0.0	 0.0	 3	   0.000000	   0.193400	 469.500000;
	2	 0.0	 0.0	 3	   0.000000	   0.801600	 362.700000;
	2	 0.0	 0.0	 3	   0.000000	  21.270000	 487.600000;
	2	 0.0	 0.0	 3	   0.000000	  25.860000	 285.200000;
	2	 0.0	 0.0	 3	   0.000000	   0.638700	 3261.000000;
	2	 0.0	 0.0	 3	   0.000000	   0.468300	 823.900000;
	2	 0.0	 0.0	 3	   0.000000	   0.341900	 790.500000;
	2	 0.0	 0.0	 3	   0.000000	   0.813500	 286.500000;
	2	 0.0	 0.0	 3	   0.000000	   0.538100	 523.800000;
	2	 0.0	 0.0	 3	   0.000000	  23.350000	  96.280000;
	2	 0.0	 0.0	 3	   0.000000	  14.210000	 275.500000;
	2	 0.0	 0.0	 3	   0.000000	   0.947400	 3709.000000;
	2	 0.0	 0.0	 3	   0.000000	   0.758700	 253.700000;
	2	 0.0	 0.0	 3	   0.000179	   0.399700	 5171.000000;
	2	 0.0	 0.0	 3	   0.389100	   8.650000	 188.600000;
	2	 0.0	 0.0	 3	   0.000000	   1.023000	 1395.000000;
	2	 0.0	 0.0	 3	   0.000000	   0.326900	 778.700000;
	2	 0.0	 0.0	 3	   0.000000	   0.385800	 287.400000;
	2	 0.0	 0.0	 3	   0.000000	   3.847000	 320.400000;
	2	 0.0	 0.0	 3	   0.074550	  56.160000	 483.400000;
	2	 0.0	 0.0	 3	   0.000000	  22.920000	 181.600000;
	2	 0.0	 0.0	 3	   0.033110	  35.740000	 2501.000000;
	2	 0.0	 0.0	 3	   0.000000	  39.130000	 643.000000;
	2	 0.0	 0.0	 3	   0.000000	   1.601000	 1521.000000;
	2	 0.0	 0.0	 3	   0.000000	  23.300000	 196.900000;
	2	 0.0	 0.0	 3	   0.000000	  21.000000	 512.400000;
	2	 0.0	 0.0	 3	   0.000000	  13.870000	 284.600000;
	2	 0.0	 0.0	 3	   0.000000	  33.600000	 153.200000;
	2	 0.0	 0.0	 3	   0.957500	  71.510000	 -78.540000;
	2	 0.0	 0.0	 3	   0.000000	   0.215700	 20360.000000;
	2	 0.0	 0.0	 3	   0.000000	   0.854300	 46140.000000;
	2	 0.0	 0.0	 3	   0.000000	  36.050000	 647.400000;
	2	 0.0	 0.0	 3	   0.000000	   0.646700	 884.600000;
	2	 0.0	 0.0	 3	   0.015100	  25.440000	 862.100000;
	2	 0.0	 0.0	 3	   0.000000	  28.970000	 1883.000000;
	2	 0.0	 0.0	 3	   0.000000	   3.897000	 177.100000;
	2	 0.0	 0.0	 3	   0.000000	   0.625800	 240.100000;
	2	 0.0	 0.0	 3	   0.000000	   0.677600	 2819.000000;
	2	 0.0	 0.0	 3	   0.000000	  14.950000	 306.600000;
	2	 0.0	 0.0	 3	   0.000000	   0.339200	 7160.000000;
	2	 0.0	 0.0	 3	   0.047860	  41.420000	 263.000000;
	2	 0.0	 0.0	 3	   0.000000	   0.523800	 389.300000;
	2	 0.0	 0.0	 3	   0.000000	   2.348000	 1511.000000;
	2	 0.0	 0.0	 3	   0.000000	   0.869800	 20290.000000;
	2	 0.0	 0.0	 3	   0.000000	   0.374700	 1650.000000;
	2	 0.0	 0.0	 3	   0.028090	  24.710000	 375.000000;
	2	 0.0	 0.0	 3	   1.340000	  13.210000	 155.100000;
	2	 0.0	 0.0	 3	   0.000000	   1.492000	 5589.000000;
	2	 0.0	 0.0	 3	   0.000000	   1.945000	 182.100000;
	2	 0.0	 0.0	 3	   0.019150	  28.050000	 1961.000000;
	2	 0.0	 0.0	 3	   0.000000	   1.295000	 4512.000000;
	2	 0.0	 0.0	 3	   0.000000	   2.809000	 2040.000000;
	2	 0.0	 0.0	 3	   0.000000	   3.562000	 7380.000000;
	2	 0.0	 0.0	 3	   0.000000	   0.976000	 202.200000;
	2	 0.0	 0.0	 3	   0.000000	   0.458200	  69.370000;
	2	 0.0	 0.0	 3	   0.000000	   9.112000	 12490.000000;
	2	 0.0	 0.0	 3	   0.051830	  42.990000	 300.300000;
	2	 0.0	 0.0	 3	   0.000000	   0.315000	 1995.000000;
	2	 0.0	 0.0	 3	   0.000000	   1.424000	 1307.000000;
	2	 0.0	 0.0	 3	   0.000000	   3.298000	 886.000000;
	2	 0.0	 0.0	 3	   0.009644	  20.310000	 1160.000000;
	2	 0.0	 0.0	 3	   0.000000	  58.240000	 -138.300000;
	2	 0.0	 0.0	 3	   0.000000	   0.163600	 6638.000000;
	2	 0.0	 0.0	 3	   0.019820	  25.830000	 7007.000000;
	2	 0.0	 0.0	 3	   0.000264	   0.457600	 1764.000000;
	2	 0.0	 0.0	 3	   0.000000	   0.486100	 124.400000;
	2	 0.0	 0.0	 3	   0.000842	   2.001000	 266.900000;
	2	 0.0	 0.0	 3	   0.000000	   0.519800	 8762.000000;
	2	 0.0	 0.0	 3	   0.000272	   0.227400	 1857.000000;
	2	 0.0	 0.0	 3	   0.000222	   0.299900	 1299.000000;
	2	 0.0	 0.0	 3	   0.347000	   7.710000	 205.100000;
	2	 0.0	 0.0	 3	   0.000000	   0.173800	 214.400000;
	2	 0.0	 0.0	 3	   0.000000	   0.173800	 178.400000;
	2	 0.0	 0.0	 3	   0.000000	   0.617900	 774.600000;
	2	 0.0	 0.0	 3	   0.000000	   0.737200	 4505.000000;
	2	 0.0	 0.0	 3	   0.069370	  51.580000	 1435.000000;
	2	 0.0	 0.0	 3	   0.000000	   0.772000	 1271.000000;
	2	 0.0	 0.0	 3	   0.000000	   5.289000	 823.000000;
	2	 0.0	 0.0	 3	   0.000000	   0.826200	 1509.000000;
	2	 0.0	 0.0	 3	   0.000000	   0.587500	 240.600000;
	2	 0.0	 0.0	 3	   0.000000	   0.603500	 5997.000000;
	2	 0.0	 0.0	 3	   0.000000	   1.138000	 6222.000000;
	2	 0.0	 0.0	 3	   0.000000	   0.143600	 214.200000;
	2	 0.0	 0.0	 3	   0.000000	   0.122900	 341.100000;
	2	 0.0	 0.0	 3	   0.000000	   0.450200	 736.400000;
	2	 0.0	 0.0	 3	   0.000000	   0.220900	 200.400000;
	2	 0.0	 0.0	 3	   0.000000	  14.660000	 175.600000;
	2	 0.0	 0.0	 3	   0.047420	  16.140000	 490.800000;
	2	 0.0	 0.0	 3	   0.000000	   0.908200	 430.000000;
	2	 0.0	 0.0	 3	   0.000349	   0.308100	 224.100000;
	2	 0.0	 0.0	 3	   0.000000	   0.271300	 3853.000000;
	2	 0.0	 0.0	 3	   0.000000	   0.676700	 1025.000000;
	2	 0.0	 0.0	 3	   0.000000	  17.960000	 325.200000;
	2	 0.0	 0.0	 3	   0.000000	  13.440000	 357.100000;
	2	 0.0	 0.0	 3	   0.051220	  47.300000	 227.300000;
	2	 0.0	 0.0	 3	   0.037370	  40.430000	 192.000000;
	2	 0.0	 0.0	 3	   0.000000	  20.170000	 494.500000;
	2	 0.0	 0.0	 3	   0.000000	  20.170000	 512.500000;
	2	 0.0	 0.0	 3	   0.000000	  29.980000	 128.300000;
	2	 0.0	 0.0	 3	   0.000000	   0.416300	 4419.000000;
	2	 0.0	 0.0	 3	   0.000000	   5.721000	 148.200000;
	2	 0.0	 0.0	 3	   0.000000	   6.931000	 147.600000;
	2	 0.0	 0.0	 3	   0.000000	  10.960000	 207.400000;
	2	 0.0	 0.0	 3	   0.000000	   1.933000	 4647.000000;
	2	 0.0	 0.0	 3	   0.000000	   1.080000	 1548.000000;
	2	 0.0	 0.0	 3	   0.000000	  11.630000	  88.510000;
	2	 0.0	 0.0	 3	   0.000000	   0.727400	 1080.000000;
	2	 0.0	 0.0	 3	   0.000000	   0.447900	 229.000000;
	2	 0.0	 0.0	 3	   0.000000	  31.270000	 209.700000;
	2	 0.0	 0.0	 3	   0.000000	   0.693600	 3045.000000;
	2	 0.0	 0.0	 3	   0.000000	   0.406000	 689.900000;
	2	 0.0	 0.0	 3	   0.000000	   8.206000	 143.400000;
	2	 0.0	 0.0	 3	   0.000000	   0.576200	 328.900000;
	2	 0.0	 0.0	 3	   0.000000	   1.151000	 1465.000000;
	2	 0.0	 0.0	 3	   0.000000	  11.730000	 278.500000;
	2	 0.0	 0.0	 3	   0.073260	  56.330000	  63.520000;
	2	 0.0	 0.0	 3	   0.000000	   0.802200	 1156.000000;
	2	 0.0	 0.0	 3	   0.000000	   0.787200	 1276.000000;
	2	 0.0	 0.0	 3	   0.000000	   0.755000	 237.700000;
	2	 0.0	 0.0	 3	   0.000000	  10.420000	 541.200000;
	2	 0.0	 0.0	 3	   0.000000	  18.600000	 208.300000;
	2	 0.0	 0.0	 3	   0.029160	  35.710000	 238.500000;
	2	 0.0	 0.0	 3	   0.000000	   0.164600	 1296.000000;
	2	 0.0	 0.0	 3	   0.041050	  42.060000	 432.200000;
	2	 0.0	 0.0	 3	   0.000000	   4.383000	 138.900000;
	2	 0.0	 0.0	 3	   0.000000	  13.260000	  92.330000;
	2	 0.0	 0.0	 3	   0.000000	   1.187000	 1390.000000;
	2	 0.0	 0.0	 3	   0.000000	   1.754000	 276.500000;
	2	 0.0	 0.0	 3	   0.000000	   0.854700	 253.900000;
	2	 0.0	 0.0	 3	   0.000000	   0.163400	 139.300000;
	2	 0.0	 0.0	 3	   0.000229	   0.252800	 248.300000;
	2	 0.0	 0.0	 3	   0.000000	   0.538400	 276.700000;
	2	 0.0	 0.0	 3	   0.000000	   0.143800	 2923.000000;
	2	 0.0	 0.0	 3	   0.073260	  56.330000	 258.100000;
	2	 0.0	 0.0	 3	   0.020190	  29.700000	 266.800000;
	2	 0.0	 0.0	 3	   0.000000	   0.843900	 4482.000000;
	2	 0.0	 0.0	 3	   0.000000	   1.398000	 1462.000000;
	2	 0.0	 0.0	 3	   0.014640	  25.260000	 335.700000;
	2	 0.0	 0.0	 3	   0.000000	   0.992400	 1407.000000;
	2	 0.0	 0.0	 3	   0.021750	  20.020000	 320.300000;
	2	 0.0	 0.0	 3	   0.000104	   0.139800	 7776.000000;
	2	 0.0	 0.0	 3	   0.000000	   1.649000	 188.500000;
	2	 0.0	 0.0	 3	   0.000000	   0.991600	 1142.000000;
	2	 0.0	 0.0	 3	   0.000000	   0.409300	 200.700000;
	2	 0.0	 0.0	 3	   0.000000	   0.708500	 573.300000;
	2	 0.0	 0.0	 3	   0.000000	   1.241000	 1320.000000;
	2	 0.0	 0.0	 3	   0.000000	   4.780000	 187.600000;
	2	 0.0	 0.0	 3	   0.000000	   4.772000	 205.600000;
	2	 0.0	 0.0	 3	   0.000000	   0.989800	 197.600000;
	2	 0.0	 0.0	 3	   0.014820	  25.450000	 255.900000;
	2	 0.0	 0.0	 3	   0.000000	   0.759300	 3547.000000;
	2	 0.0	 0.0	 3	   0.073260	  56.330000	 234.100000;
	2	 0.0	 0.0	 3	   0.000000	   0.285200	 221.700000;
	2	 0.0	 0.0	 3	   0.000000	   4.539000	 139.000000;
	2	 0.0	 0.0	 3	   0.000000	   4.660000	 156.600000;
	2	 0.0	 0.0	 3	   0.000000	   0.752900	 534.100000;
	2	 0.0	 0.0	 3	   0.000000	   0.211600	 38700.000000;
	2	 0.0	 0.0	 3	   0.000000	   0.701700	 238.900000;
	2	 0.0	 0.0	 3	   0.000000	   0.406800	 12390.000000;
	2	 0.0	 0.0	 3	   0.000228	   0.206800	 5257.000000;
	2	 0.0	 0.0	 3	   0.000000	  25.560000	 834.600000;
	2	 0.0	 0.0	 3	   0.000000	  10.410000	 1198.000000;
	2	 0.0	 0.0	 3	   0.364400	   4.180000	 560.400000;
	2	 0.0	 0.0	 3	   0.000239	   0.244800	 2311.000000;
	2	 0.0	 0.0	 3	   0.000254	   0.230000	 5323.000000;
	2	 0.0	 0.0	 3	   0.067800	  53.980000	 329.200000;
	2	 0.0	 0.0	 3	   0.000000	  14.050000	 477.100000;
	2	 0.0	 0.0	 3	   0.000000	   0.803200	 1070.000000;
	2	 0.0	 0.0	 3	   0.000000	   1.748000	 1504.000000;
	2	 0.0	 0.0	 3	   0.000000	   1.063000	 159.500000;
	2	 0.0	 0.0	 3	   0.000000	   0.406500	 724.400000;
	2	 0.0	 0.0	 3	 375.100000	 2996.000000	 -303.351000;
	2	 0.0	 0.0	 3	   0.000000	   0.721700	 117.800000;
	2	 0.0	 0.0	 3	   0.000000	   2.786000	 4701.000000;
	2	 0.0	 0.0	 3	   0.000000	   0.111600	 3164.000000;
	2	 0.0	 0.0	 3	 286.800000	 4320.000000	 -421.800000;
	2	 0.0	 0.0	 3	   0.000000	   0.787400	 874.900000;
	2	 0.0	 0.0	 3	 124.100000	 3674.000000	 -316.100000;
	2	 0.0	 0.0	 3	   0.000000	   0.660700	 251.400000;
	2	 0.0	 0.0	 3	   0.033560	  35.150000	 3301.000000;
	2	 0.0	 0.0	 3	   0.000000	   0.111500	 1491.000000;
	2	 0.0	 0.0	 3	   0.000000	   0.622300	 883.100000;
	2	 0.0	 0.0	 3	   0.000000	   1.586000	 1244.000000;
	2	 0.0	 0.0	 3	   0.001663	   0.354700	 183.200000;
	2	 0.0	 0.0	 3	   0.000000	   0.964900	 215.700000;
	2	 0.0	 0.0	 3	   0.000000	   0.453000	 222.200000;
	2	 0.0	 0.0	 3	   0.000000	   0.068170	 1559.000000;
	2	 0.0	 0.0	 3	   0.000000	   9.816000	 232.800000;
	2	 0.0	 0.0	 3	   0.000000	   5.583000	 177.600000;
	2	 0.0	 0.0	 3	   0.000000	   4.335000	 296.700000;
	2	 0.0	 0.0	 3	   0.000000	  14.770000	 193.800000;
	2	 0.0	 0.0	 3	   0.000000	  12.200000	 123.800000;
	2	 0.0	 0.0	 3	   0.000000	  12.550000	 259.500000;
...
];

%% branch data
%	fbus	tbus	r	x	b	rateA	rateB	rateC	ratio	angle	status	angmin	angmax
mpc.branch = [
	1	 31	 0.0013	 0.0099	 0.02132	 260.0	 312.0	 390.0	 0.0	 0.0	 1	 -22.5657458907	 22.5657458907;
	3	 7	 0.07479	 0.29968	 0.0	 260.0	 312.0	 390.0	 0.0	 0.0	 1	 -22.5657458907	 22.5657458907;
	3	 10	 1.0352	 0.9	 0.0	 260.0	 312.0	 390.0	 0.0	 0.0	 1	 -22.5657458907	 22.5657458907;
	3	 28	 0.03978	 0.26486	 0.0	 260.0	 312.0	 390.0	 0.0	 0.0	 1	 -22.5657458907	 22.5657458907;
	3	 29	 1.0789	 0.9	 0.0	 260.0	 312.0	 390.0	 0.0	 0.0	 1	 -22.5657458907	 22.5657458907;
	3	 33	 0.13857	 0.28969	 0.0	 260.0	 312.0	 390.0	 0.0	 0.0	 1	 -22.5657458907	 22.5657458907;
	3	 44	 0.07496	 0.30013	 0.0	 260.0	 312.0	 390.0	 0.0	 0.0	 1	 -22.5657458907	 22.5657458907;
	4	 9	 0.39394	 0.9	 0.0	 260.0	 312.0	 390.0	 0.0	 0.0	 1	 -22.5657458907	 22.5657458907;
	4	 15	 0.0111	 0.16469	 0.0	 260.0	 312.0	 390.0	 0.0	 0.0	 1	 -22.5657458907	 22.5657458907;
	4	 33	 0.05555	 0.36498	 0.0	 260.0	 312.0	 390.0	 0.0	 0.0	 1	 -22.5657458907	 22.5657458907;
	5	 9	 0.29041	 0.5542	 0.0	 260.0	 312.0	 390.0	 0.0	 0.0	 1	 -22.5657458907	 22.5657458907;
	5	 47	 0.15248	 0.33587	 0.0	 260.0	 312.0	 390.0	 0.0	 0.0	 1	 -22.5657458907	 22.5657458907;
	6	 16	 0.0042	 0.0253	 0.0485	 260.0	 312.0	 390.0	 0.0	 0.0	 1	 -22.5657458907	 22.5657458907;
	6	 54	 0.0046	 0.0315	 0.059	 420.23	 504.27	 630.34	 0.0	 0.0	 1	 -22.5657458907	 22.5657458907;
	7	 28	 -0.0656	 0.84873	 0.0	 260.0	 312.0	 390.0	 0.0	 0.0	 1	 -22.5657458907	 22.5657458907;
	7	 33	 0.15749	 0.77703	 0.0	 260.0	 312.0	 390.0	 0.0	 0.0	 1	 -22.5657458907	 22.5657458907;
	7	 44	 0.0162	 0.1815	 0.0	 260.0	 312.0	 390.0	 0.0	 0.0	 1	 -22.5657458907	 22.5657458907;
	8	 10	 -0.0598	 0.2664	 0.0	 260.0	 312.0	 390.0	 0.0	 0.0	 1	 -22.5657458907	 22.5657458907;
	8	 29	 -0.0578	 0.27321	 0.0	 260.0	 312.0	 390.0	 0.0	 0.0	 1	 -22.5657458907	 22.5657458907;
	8	 34	 0.01979	 0.0496	 0.0	 260.0	 312.0	 390.0	 0.0	 0.0	 1	 -22.5657458907	 22.5657458907;
	9	 10	 0.46671	 0.9	 0.0	 260.0	 312.0	 390.0	 0.0	 0.0	 1	 -22.5657458907	 22.5657458907;
	9	 15	 0.39058	 0.9	 0.0	 260.0	 312.0	 390.0	 0.0	 0.0	 1	 -22.5657458907	 22.5657458907;
	9	 29	 0.50043	 0.9	 0.0	 260.0	 312.0	 390.0	 0.0	 0.0	 1	 -22.5657458907	 22.5657458907;
	9	 33	 0.98041	 0.9	 0.0	 260.0	 312.0	 390.0	 0.0	 0.0	 1	 -22.5657458907	 22.5657458907;
	9	 34	 0.54064	 0.64634	 0.0	 260.0	 312.0	 390.0	 0.0	 0.0	 1	 -22.5657458907	 22.5657458907;
	9	 47	 0.14495	 0.27334	 0.0	 260.0	 312.0	 390.0	 0.0	 0.0	 1	 -22.5657458907	 22.5657458907;
	10	 28	 0.48924	 0.9	 0.0	 260.0	 312.0	 390.0	 0.0	 0.0	 1	 -22.5657458907	 22.5657458907;
	10	 29	 0.0009	 0.0003	 0.0	 260.0	 312.0	 390.0	 0.0	 0.0	 1	 -22.5657458907	 22.5657458907;
	10	 33	 0.95414	 0.9	 0.0	 260.0	 312.0	 390.0	 0.0	 0.0	 1	 -22.5657458907	 22.5657458907;
	10	 34	 0.01526	 0.02962	 0.0	 260.0	 312.0	 390.0	 0.0	 0.0	 1	 -22.5657458907	 22.5657458907;
	11	 47	 0.16551	 0.4737	 0.0	 260.0	 312.0	 390.0	 0.0	 0.0	 1	 -22.5657458907	 22.5657458907;
	11	 49	 0.04304	 0.18584	 0.0	 260.0	 312.0	 390.0	 0.0	 0.0	 1	 -22.5657458907	 22.5657458907;
	12	 18	 0.0136	 0.0903	 0.1732	 260.0	 312.0	 390.0	 0.0	 0.0	 1	 -22.5657458907	 22.5657458907;
	12	 961	 0.0001	 0.01	 0.0	 122.07	 146.49	 183.11	 0.0	 0.0	 1	 -22.5657458907	 22.5657458907;
	13	 22	 0.0154	 0.0991	 0.17817	 591.0	 709.2	 886.5	 0.0	 0.0	 1	 -22.5657458907	 22.5657458907;
	13	 31	 0.0122	 0.0943	 0.18743	 260.0	 312.0	 390.0	 0.0	 0.0	 1	 -22.5657458907	 22.5657458907;
	13	 39	 0.0065	 0.0503	 0.10008	 260.0	 312.0	 390.0	 0.0	 0.0	 1	 -22.5657458907	 22.5657458907;
	13	 40	 0.0022	 0.0262	 0.05566	 712.6	 855.12	 1068.9	 0.0	 0.0	 1	 -22.5657458907	 22.5657458907;
	13	 40	 0.0027	 0.0268	 0.05696	 707.9	 849.48	 1061.85	 0.0	 0.0	 1	 -22.5657458907	 22.5657458907;
	15	 33	 0.05509	 0.36182	 0.0	 260.0	 312.0	 390.0	 0.0	 0.0	 1	 -22.5657458907	 22.5657458907;
	16	 1077	 0.0001	 0.01	 0.0	 222.0	 244.2	 266.4	 0.0	 0.0	 1	 -22.5657458907	 22.5657458907;
	17	 43	 0.0123	 0.0822	 0.15137	 357.0	 392.7	 428.4	 0.0	 0.0	 1	 -22.5657458907	 22.5657458907;
	17	 52	 0.0057	 0.0382	 0.07047	 260.0	 312.0	 390.0	 0.0	 0.0	 1	 -22.5657458907	 22.5657458907;
	18	 35	 0.00605	 0.03642	 0.06956	 260.0	 312.0	 390.0	 0.0	 0.0	 1	 -22.5657458907	 22.5657458907;
	18	 52	 0.00203	 0.01191	 0.02399	 260.0	 312.0	 390.0	 0.0	 0.0	 1	 -22.5657458907	 22.5657458907;
	19	 53	 0.00116	 0.0314	 2.6586	 758.15	 909.78	 1137.22	 0.0	 0.0	 1	 -22.5657458907	 22.5657458907;
	22	 45	 0.0106	 0.0684	 0.13505	 260.0	 312.0	 390.0	 0.0	 0.0	 1	 -22.5657458907	 22.5657458907;
	22	 48	 0.0112	 0.0727	 0.14343	 260.0	 312.0	 390.0	 0.0	 0.0	 1	 -22.5657458907	 22.5657458907;
	22	 50	 0.00197	 0.01283	 0.02477	 260.0	 312.0	 390.0	 0.0	 0.0	 1	 -22.5657458907	 22.5657458907;
	23	 632	 0.0001	 0.01	 0.0	 505.0	 555.5	 606.0	 0.0	 0.0	 1	 -22.5657458907	 22.5657458907;
	24	 36	 0.0045	 0.0221	 0.00642	 260.0	 312.0	 390.0	 0.0	 0.0	 1	 -22.5657458907	 22.5657458907;
	26	 45	 0.0034	 0.0221	 0.04362	 260.0	 312.0	 390.0	 0.0	 0.0	 1	 -22.5657458907	 22.5657458907;
	27	 49	 0.04064	 0.1642	 0.0	 260.0	 312.0	 390.0	 0.0	 0.0	 1	 -22.5657458907	 22.5657458907;
	27	 666	 0.0001	 0.01	 0.0	 154.56	 185.47	 231.84	 0.0	 0.0	 1	 -22.5657458907	 22.5657458907;
	28	 29	 0.523	 0.9	 0.0	 260.0	 312.0	 390.0	 0.0	 0.0	 1	 -22.5657458907	 22.5657458907;
	28	 33	 0.03257	 0.26394	 0.0	 260.0	 312.0	 390.0	 0.0	 0.0	 1	 -22.5657458907	 22.5657458907;
	28	 44	 -0.0656	 0.85005	 0.0	 260.0	 312.0	 390.0	 0.0	 0.0	 1	 -22.5657458907	 22.5657458907;
	29	 34	 0.01598	 0.03011	 0.0	 260.0	 312.0	 390.0	 0.0	 0.0	 1	 -22.5657458907	 22.5657458907;
	30	 32	 0.01265	 0.06079	 0.0289	 260.0	 312.0	 390.0	 0.0	 0.0	 1	 -22.5657458907	 22.5657458907;
	30	 41	 0.0239	 0.1186	 0.06562	 260.0	 312.0	 390.0	 0.0	 0.0	 1	 -22.5657458907	 22.5657458907;
	31	 43	 0.0001	 0.001	 0.00208	 260.0	 312.0	 390.0	 0.0	 0.0	 1	 -22.5657458907	 22.5657458907;
	32	 609	 0.0001	 0.01	 0.0	 193.83	 232.59	 290.74	 0.0	 0.0	 1	 -22.5657458907	 22.5657458907;
	33	 44	 0.15786	 0.7782	 0.0	 260.0	 312.0	 390.0	 0.0	 0.0	 1	 -22.5657458907	 22.5657458907;
	35	 42	 0.00421	 0.0253	 0.04874	 260.0	 312.0	 390.0	 0.0	 0.0	 1	 -22.5657458907	 22.5657458907;
	37	 38	 0.0044	 0.034	 0.06751	 260.0	 312.0	 390.0	 0.0	 0.0	 1	 -22.5657458907	 22.5657458907;
	37	 39	 0.0049	 0.0375	 0.07449	 429.88	 515.85	 644.82	 0.0	 0.0	 1	 -22.5657458907	 22.5657458907;
	38	 40	 0.0048	 0.0569	 0.12161	 260.0	 312.0	 390.0	 0.0	 0.0	 1	 -22.5657458907	 22.5657458907;
	39	 43	 0.0091	 0.0698	 0.13869	 453.0	 498.3	 543.6	 0.0	 0.0	 1	 -22.5657458907	 22.5657458907;
	42	 975	 0.0001	 0.01	 0.0	 137.0	 150.7	 164.4	 0.0	 0.0	 1	 -22.5657458907	 22.5657458907;
	46	 678	 0.0001	 0.01	 0.0	 172.0	 189.2	 206.4	 0.0	 0.0	 1	 -22.5657458907	 22.5657458907;
	50	 54	 0.01244	 0.081	 0.1561	 260.0	 312.0	 390.0	 0.0	 0.0	 1	 -22.5657458907	 22.5657458907;
	51	 204	 0.0001	 0.01	 0.0	 83.7	 98.6	 125.55	 0.0	 0.0	 1	 -22.5657458907	 22.5657458907;
	56	 58	 0.00033	 0.00185	 0.00134	 154.0	 182.0	 182.0	 0.0	 0.0	 1	 -22.5657458907	 22.5657458907;
	56	 63	 0.00351	 0.01972	 0.0013	 154.0	 182.0	 182.0	 0.0	 0.0	 1	 -22.5657458907	 22.5657458907;
	58	 67	 0.00251	 0.00782	 0.0022	 154.0	 182.0	 182.0	 0.0	 0.0	 1	 -22.5657458907	 22.5657458907;
	59	 62	 0.004	 0.0117	 0.0013	 139.0	 163.0	 163.0	 0.0	 0.0	 1	 -22.5657458907	 22.5657458907;
	59	 225	 0.0001	 0.01	 0.0	 83.7	 98.6	 125.55	 0.0	 0.0	 1	 -22.5657458907	 22.5657458907;
	62	 64	 0.0046	 0.01505	 0.00188	 83.0	 83.0	 83.0	 0.0	 0.0	 1	 -22.5657458907	 22.5657458907;
	62	 69	 0.0252	 0.0825	 0.0103	 142.0	 167.0	 167.0	 0.0	 0.0	 1	 -22.5657458907	 22.5657458907;
	66	 67	 0.0087	 0.02647	 0.00222	 144.0	 169.0	 169.0	 0.0	 0.0	 1	 -22.5657458907	 22.5657458907;
	66	 69	 0.0262	 0.0857	 0.0107	 142.0	 176.0	 176.0	 0.0	 0.0	 1	 -22.5657458907	 22.5657458907;
	66	 241	 0.0001	 0.01	 0.0	 83.7	 98.6	 125.55	 0.0	 0.0	 1	 -22.5657458907	 22.5657458907;
	72	 95	 0.0016	 0.0179	 0.29195	 749.15	 898.98	 1123.72	 0.0	 0.0	 1	 -22.5657458907	 22.5657458907;
	72	 127	 0.0011	 0.0122	 0.2654	 654.13	 784.95	 981.19	 0.0	 0.0	 1	 -22.5657458907	 22.5657458907;
	74	 103	 0.0024	 0.0113	 0.00294	 260.0	 312.0	 390.0	 0.0	 0.0	 1	 -22.5657458907	 22.5657458907;
	74	 103	 -0.0148	 0.50095	 0.0	 260.0	 312.0	 390.0	 0.0	 0.0	 1	 -22.5657458907	 22.5657458907;
	74	 133	 0.0189	 0.0877	 0.02284	 260.0	 312.0	 390.0	 0.0	 0.0	 1	 -22.5657458907	 22.5657458907;
	74	 146	 0.018	 0.1264	 0.04014	 260.0	 312.0	 390.0	 0.0	 0.0	 1	 -22.5657458907	 22.5657458907;
	75	 87	 0.0018	 0.0232	 0.4064	 685.32	 822.38	 1027.98	 0.0	 0.0	 1	 -22.5657458907	 22.5657458907;
	75	 143	 0.0013	 0.0192	 0.335	 2010.0	 2211.0	 2412.0	 0.0	 0.0	 1	 -22.5657458907	 22.5657458907;
	76	 88	 0.0014	 0.0157	 0.29997	 260.0	 312.0	 390.0	 0.0	 0.0	 1	 -22.5657458907	 22.5657458907;
	77	 98	 0.0201	 0.0815	 0.02096	 260.0	 312.0	 390.0	 0.0	 0.0	 1	 -22.5657458907	 22.5657458907;
	77	 122	 0.0035	 0.0178	 0.0	 260.0	 312.0	 390.0	 0.0	 0.0	 1	 -22.5657458907	 22.5657458907;
	77	 122	 0.0229	 0.41771	 0.0	 260.0	 312.0	 390.0	 0.0	 0.0	 1	 -22.5657458907	 22.5657458907;
	78	 128	 0.01346	 0.05014	 0.0125	 260.0	 312.0	 390.0	 0.0	 0.0	 1	 -22.5657458907	 22.5657458907;
	78	 2440	 0.0001	 0.01	 0.0	 228.0	 250.8	 273.6	 0.0	 0.0	 1	 -22.5657458907	 22.5657458907;
	79	 124	 0.0001	 0.001	 0.0	 260.0	 312.0	 390.0	 0.0	 0.0	 1	 -22.5657458907	 22.5657458907;
	81	 85	 0.031	 0.1441	 0.0334	 260.0	 312.0	 390.0	 0.0	 0.0	 1	 -22.5657458907	 22.5657458907;
	81	 103	 0.0085	 0.0394	 0.01026	 260.0	 312.0	 390.0	 0.0	 0.0	 1	 -22.5657458907	 22.5657458907;
	81	 147	 0.0404	 0.1952	 0.04559	 260.0	 312.0	 390.0	 0.0	 0.0	 1	 -22.5657458907	 22.5657458907;
	83	 104	 0.00065	 0.00725	 0.138	 565.76	 678.91	 848.64	 0.0	 0.0	 1	 -22.5657458907	 22.5657458907;
	83	 108	 0.00065	 0.00725	 0.138	 574.22	 689.07	 861.33	 0.0	 0.0	 1	 -22.5657458907	 22.5657458907;
	84	 93	 0.00224	 0.02578	 0.26437	 1046.0	 1466.0	 1466.0	 0.0	 0.0	 1	 -22.5657458907	 22.5657458907;
	84	 142	 0.00067	 0.00772	 0.07922	 1046.0	 1466.0	 1466.0	 0.0	 0.0	 1	 -22.5657458907	 22.5657458907;
	85	 90	 0.0131	 0.0609	 0.01586	 260.0	 312.0	 390.0	 0.0	 0.0	 1	 -22.5657458907	 22.5657458907;
	85	 94	 0.0056	 0.0418	 0.01167	 260.0	 312.0	 390.0	 0.0	 0.0	 1	 -22.5657458907	 22.5657458907;
	85	 150	 0.0131	 0.0609	 0.01586	 260.0	 312.0	 390.0	 0.0	 0.0	 1	 -22.5657458907	 22.5657458907;
	86	 94	 0.0052	 0.0393	 0.01144	 260.0	 312.0	 390.0	 0.0	 0.0	 1	 -22.5657458907	 22.5657458907;
	86	 148	 0.0027	 0.0198	 0.0063	 260.0	 312.0	 390.0	 0.0	 0.0	 1	 -22.5657458907	 22.5657458907;
	88	 89	 0.0024	 0.026	 0.43493	 260.0	 312.0	 390.0	 0.0	 0.0	 1	 -22.5657458907	 22.5657458907;
	88	 143	 0.0016	 0.0182	 0.3036	 566.0	 622.6	 679.2	 0.0	 0.0	 1	 -22.5657458907	 22.5657458907;
	91	 139	 0.0043	 0.0196	 0.0051	 260.0	 312.0	 390.0	 0.0	 0.0	 1	 -22.5657458907	 22.5657458907;
	91	 150	 0.01	 0.0462	 0.01204	 260.0	 312.0	 390.0	 0.0	 0.0	 1	 -22.5657458907	 22.5657458907;
	92	 110	 0.0001	 0.001	 0.0	 260.0	 312.0	 390.0	 0.0	 0.0	 1	 -22.5657458907	 22.5657458907;
	92	 133	 0.006	 0.0478	 0.01272	 260.0	 312.0	 390.0	 0.0	 0.0	 1	 -22.5657458907	 22.5657458907;
	92	 2634	 0.0001	 0.01	 0.0	 83.7	 98.6	 125.55	 0.0	 0.0	 1	 -22.5657458907	 22.5657458907;
	93	 113	 0.00258	 0.029	 0.2982	 1046.0	 1361.0	 1361.0	 0.0	 0.0	 1	 -22.5657458907	 22.5657458907;
	93	 127	 0.0007	 0.0074	 0.07651	 1568.0	 1760.0	 1760.0	 0.0	 0.0	 1	 -22.5657458907	 22.5657458907;
	95	 137	 0.0009	 0.01	 0.19176	 964.64	 1157.56	 1446.96	 0.0	 0.0	 1	 -22.5657458907	 22.5657458907;
	96	 134	 0.0063	 0.0477	 0.01332	 260.0	 312.0	 390.0	 0.0	 0.0	 1	 -22.5657458907	 22.5657458907;
	96	 2557	 0.0001	 0.01	 0.0	 116.0	 127.6	 139.2	 0.0	 0.0	 1	 -22.5657458907	 22.5657458907;
	97	 150	 0.0041	 0.0572	 0.036	 260.0	 312.0	 390.0	 0.0	 0.0	 1	 -22.5657458907	 22.5657458907;
	97	 1186	 0.0001	 0.01	 0.0	 269.0	 295.9	 322.8	 0.0	 0.0	 1	 -22.5657458907	 22.5657458907;
	98	 123	 0.0245	 0.1136	 0.0296	 260.0	 312.0	 390.0	 0.0	 0.0	 1	 -22.5657458907	 22.5657458907;
	98	 134	 0.0092	 0.0694	 0.01932	 260.0	 312.0	 390.0	 0.0	 0.0	 1	 -22.5657458907	 22.5657458907;
	98	 136	 0.0001	 0.0478	 0.0	 260.0	 312.0	 390.0	 0.0	 0.0	 1	 -22.5657458907	 22.5657458907;
	99	 107	 0.00171	 0.01033	 0.0032	 260.0	 312.0	 390.0	 0.0	 0.0	 1	 -22.5657458907	 22.5657458907;
	99	 2539	 0.0001	 0.01	 0.0	 126.0	 138.6	 151.2	 0.0	 0.0	 1	 -22.5657458907	 22.5657458907;
	101	 105	 0.0018	 0.0204	 0.3036	 260.0	 312.0	 390.0	 0.0	 0.0	 1	 -22.5657458907	 22.5657458907;
	101	 135	 0.0011	 0.0119	 0.2281	 580.08	 696.1	 870.12	 0.0	 0.0	 1	 -22.5657458907	 22.5657458907;
	101	 143	 0.0018	 0.0204	 0.3036	 587.48	 704.98	 881.22	 0.0	 0.0	 1	 -22.5657458907	 22.5657458907;
	102	 111	 0.0061	 0.0463	 0.0132	 260.0	 312.0	 390.0	 0.0	 0.0	 1	 -22.5657458907	 22.5657458907;
	102	 116	 0.0095	 0.0217	 0.02035	 260.0	 312.0	 390.0	 0.0	 0.0	 1	 -22.5657458907	 22.5657458907;
	104	 141	 0.0009	 0.0104	 0.19965	 566.62	 679.95	 849.94	 0.0	 0.0	 1	 -22.5657458907	 22.5657458907;
	107	 128	 0.00052	 0.00357	 0.00098	 260.0	 312.0	 390.0	 0.0	 0.0	 1	 -22.5657458907	 22.5657458907;
	108	 137	 0.0008	 0.0097	 0.19279	 674.44	 809.33	 1011.66	 0.0	 0.0	 1	 -22.5657458907	 22.5657458907;
	109	 142	 0.00106	 0.01322	 0.21146	 1256.0	 1256.0	 1256.0	 0.0	 0.0	 1	 -22.5657458907	 22.5657458907;
	110	 144	 0.0021	 0.0148	 0.00462	 260.0	 312.0	 390.0	 0.0	 0.0	 1	 -22.5657458907	 22.5657458907;
	110	 2457	 0.0001	 0.01	 0.0	 122.0	 134.2	 146.4	 0.0	 0.0	 1	 -22.5657458907	 22.5657458907;
	111	 124	 0.0011	 0.008	 0.00226	 260.0	 312.0	 390.0	 0.0	 0.0	 1	 -22.5657458907	 22.5657458907;
	112	 120	 0.0057	 0.0412	 0.0115	 260.0	 312.0	 390.0	 0.0	 0.0	 1	 -22.5657458907	 22.5657458907;
	112	 128	 0.0189	 0.0873	 0.02016	 260.0	 312.0	 390.0	 0.0	 0.0	 1	 -22.5657458907	 22.5657458907;
	113	 142	 0.00549	 0.0625	 0.6418	 1046.0	 1361.0	 1361.0	 0.0	 0.0	 1	 -22.5657458907	 22.5657458907;
	113	 1206	 0.0001	 0.01	 0.0	 354.0	 389.4	 424.8	 0.0	 0.0	 1	 -22.5657458907	 22.5657458907;
	114	 660	 0.0001	 0.01	 0.0	 362.42	 434.9	 543.63	 0.0	 0.0	 1	 -22.5657458907	 22.5657458907;
	115	 139	 0.0043	 0.0319	 0.00892	 260.0	 312.0	 390.0	 0.0	 0.0	 1	 -22.5657458907	 22.5657458907;
	115	 148	 0.0086	 0.0644	 0.018	 260.0	 312.0	 390.0	 0.0	 0.0	 1	 -22.5657458907	 22.5657458907;
	116	 138	 0.0088	 0.0659	 0.0184	 260.0	 312.0	 390.0	 0.0	 0.0	 1	 -22.5657458907	 22.5657458907;
	116	 572	 0.0001	 0.01	 0.0	 484.0	 532.4	 580.8	 0.0	 0.0	 1	 -22.5657458907	 22.5657458907;
	118	 142	 0.0001	 0.001	 0.0	 1887.0	 2143.0	 2143.0	 0.0	 0.0	 1	 -22.5657458907	 22.5657458907;
	120	 124	 0.008	 0.0604	 0.01712	 260.0	 312.0	 390.0	 0.0	 0.0	 1	 -22.5657458907	 22.5657458907;
	120	 145	 0.0402	 0.1181	 0.0278	 260.0	 312.0	 390.0	 0.0	 0.0	 1	 -22.5657458907	 22.5657458907;
	121	 142	 0.0001	 0.001	 0.0	 1887.0	 2156.0	 2156.0	 0.0	 0.0	 1	 -22.5657458907	 22.5657458907;
	123	 133	 0.02	 0.0925	 0.02408	 260.0	 312.0	 390.0	 0.0	 0.0	 1	 -22.5657458907	 22.5657458907;
	123	 145	 0.0197	 0.0912	 0.02378	 260.0	 312.0	 390.0	 0.0	 0.0	 1	 -22.5657458907	 22.5657458907;
	128	 149	 0.0175	 0.0966	 0.0162	 260.0	 312.0	 390.0	 0.0	 0.0	 1	 -22.5657458907	 22.5657458907;
	130	 132	 0.0011	 0.0078	 0.00217	 550.67	 660.8	 826.0	 0.0	 0.0	 1	 -22.5657458907	 22.5657458907;
	130	 146	 0.0067	 0.0806	 0.026	 494.76	 593.72	 742.14	 0.0	 0.0	 1	 -22.5657458907	 22.5657458907;
	131	 149	 0.0263	 0.0966	 0.0246	 260.0	 312.0	 390.0	 0.0	 0.0	 1	 -22.5657458907	 22.5657458907;
	131	 2887	 0.0001	 0.01	 0.0	 83.7	 98.6	 125.55	 0.0	 0.0	 1	 -22.5657458907	 22.5657458907;
	132	 147	 0.00603	 0.04436	 0.01226	 410.93	 493.11	 616.39	 0.0	 0.0	 1	 -22.5657458907	 22.5657458907;
	135	 137	 0.0011	 0.0125	 0.24052	 1059.61	 1271.53	 1589.42	 0.0	 0.0	 1	 -22.5657458907	 22.5657458907;
	136	 2537	 0.0001	 0.01	 0.0	 83.7	 98.6	 125.55	 0.0	 0.0	 1	 -22.5657458907	 22.5657458907;
	137	 142	 0.00103	 0.013	 0.2569	 1423.0	 1760.0	 1760.0	 0.0	 0.0	 1	 -22.5657458907	 22.5657458907;
...